function mpc = case_large_3ph
% case_large_3ph - synthetic 150-bus three-phase case.
% Purpose: demonstrate the real-time progress indicator (thread 2) over a
% larger number of worker-thread (thread 1) steps than the other test cases,
% while staying within a size the demo WLS solver can realistically solve
% (150 nodes -> 450 phase-states -> 900 unknowns, 1350 WLS equations).
% Voltage values follow a smooth deterministic pattern (not random) so
% results are reproducible.

mpc.version = '2';
mpc.baseMVA = 100;

% Three-phase extension used by ThreePhaseSEPluginMP.
% Columns: busId Vm_A Va_A Vm_B Va_B Vm_C Va_C  (Vm in p.u., Va in degrees)
mpc.bus3ph = [
      1   1.00039    -0.0500    1.02711  -119.9600    0.97704   121.9996;
      2   1.00078    -0.1000    1.02695  -119.9200    0.97679   121.9984;
      3   1.00117    -0.1500    1.02677  -119.8801    0.97655   121.9964;
      4   1.00156    -0.2000    1.02659  -119.8402    0.97631   121.9936;
      5   1.00195    -0.2500    1.02641  -119.8003    0.97607   121.9900;
      6   1.00234    -0.3000    1.02622  -119.7606    0.97584   121.9856;
      7   1.00273    -0.3500    1.02603  -119.7209    0.97561   121.9804;
      8   1.00311    -0.4000    1.02584  -119.6814    0.97538   121.9745;
      9   1.00350    -0.4500    1.02564  -119.6419    0.97516   121.9677;
     10   1.00389    -0.5000    1.02543  -119.6027    0.97495   121.9601;
     11   1.00428    -0.5500    1.02522  -119.5635    0.97473   121.9518;
     12   1.00466    -0.6000    1.02501  -119.5246    0.97452   121.9427;
     13   1.00505    -0.6500    1.02479  -119.4858    0.97432   121.9328;
     14   1.00543    -0.7000    1.02457  -119.4473    0.97412   121.9221;
     15   1.00581    -0.7500    1.02434  -119.4090    0.97393   121.9107;
     16   1.00620    -0.8000    1.02411  -119.3709    0.97374   121.8985;
     17   1.00658    -0.8500    1.02388  -119.3330    0.97355   121.8855;
     18   1.00696    -0.9000    1.02364  -119.2955    0.97337   121.8718;
     19   1.00733    -0.9500    1.02340  -119.2582    0.97319   121.8573;
     20   1.00771    -1.0000    1.02315  -119.2212    0.97302   121.8421;
     21   1.00809    -1.0500    1.02290  -119.1845    0.97285   121.8262;
     22   1.00846    -1.1000    1.02265  -119.1481    0.97269   121.8095;
     23   1.00884    -1.1500    1.02239  -119.1121    0.97253   121.7921;
     24   1.00921    -1.2000    1.02213  -119.0764    0.97237   121.7740;
     25   1.00958    -1.2500    1.02186  -119.0411    0.97222   121.7552;
     26   1.00995    -1.3000    1.02160  -119.0062    0.97208   121.7356;
     27   1.01032    -1.3500    1.02132  -118.9717    0.97194   121.7154;
     28   1.01068    -1.4000    1.02105  -118.9376    0.97180   121.6945;
     29   1.01104    -1.4500    1.02077  -118.9040    0.97167   121.6729;
     30   1.01141    -1.5000    1.02048  -118.8707    0.97155   121.6507;
     31   1.01177    -1.5500    1.02020  -118.8379    0.97142   121.6278;
     32   1.01212    -1.6000    1.01991  -118.8056    0.97131   121.6042;
     33   1.01248    -1.6500    1.01961  -118.7738    0.97120   121.5800;
     34   1.01283    -1.7000    1.01932  -118.7424    0.97109   121.5551;
     35   1.01318    -1.7500    1.01902  -118.7116    0.97099   121.5297;
     36   1.01353    -1.8000    1.01871  -118.6812    0.97089   121.5036;
     37   1.01388    -1.8500    1.01841  -118.6514    0.97080   121.4769;
     38   1.01422    -1.9000    1.01810  -118.6222    0.97071   121.4497;
     39   1.01457    -1.9500    1.01779  -118.5934    0.97063   121.4218;
     40   1.01491    -2.0000    1.01747  -118.5653    0.97055   121.3934;
     41   1.01524    -2.0500    1.01715  -118.5377    0.97048   121.3644;
     42   1.01558    -2.1000    1.01683  -118.5107    0.97041   121.3349;
     43   1.01591    -2.1500    1.01651  -118.4843    0.97035   121.3049;
     44   1.01624    -2.2000    1.01618  -118.4585    0.97030   121.2743;
     45   1.01657    -2.2500    1.01585  -118.4333    0.97024   121.2432;
     46   1.01689    -2.3000    1.01552  -118.4088    0.97020   121.2116;
     47   1.01721    -2.3500    1.01518  -118.3849    0.97015   121.1796;
     48   1.01753    -2.4000    1.01484  -118.3616    0.97012   121.1470;
     49   1.01784    -2.4500    1.01450  -118.3390    0.97009   121.1140;
     50   1.01816    -2.5000    1.01416  -118.3171    0.97006   121.0806;
     51   1.01846    -2.5500    1.01382  -118.2958    0.97004   121.0467;
     52   1.01877    -2.6000    1.01347  -118.2752    0.97002   121.0124;
     53   1.01907    -2.6500    1.01312  -118.2553    0.97001   120.9777;
     54   1.01937    -2.7000    1.01277  -118.2361    0.97000   120.9427;
     55   1.01967    -2.7500    1.01241  -118.2176    0.97000   120.9072;
     56   1.01996    -2.8000    1.01206  -118.1998    0.97000   120.8714;
     57   1.02025    -2.8500    1.01170  -118.1827    0.97001   120.8352;
     58   1.02054    -2.9000    1.01134  -118.1664    0.97003   120.7987;
     59   1.02082    -2.9500    1.01098  -118.1508    0.97004   120.7618;
     60   1.02110    -3.0000    1.01061  -118.1359    0.97007   120.7247;
     61   1.02137    -3.0500    1.01025  -118.1218    0.97010   120.6873;
     62   1.02165    -3.1000    1.00988  -118.1084    0.97013   120.6496;
     63   1.02191    -3.1500    1.00951  -118.0958    0.97017   120.6116;
     64   1.02218    -3.2000    1.00914  -118.0840    0.97021   120.5734;
     65   1.02244    -3.2500    1.00877  -118.0729    0.97026   120.5350;
     66   1.02270    -3.3000    1.00839  -118.0626    0.97032   120.4964;
     67   1.02295    -3.3500    1.00802  -118.0530    0.97038   120.4575;
     68   1.02320    -3.4000    1.00764  -118.0443    0.97044   120.4185;
     69   1.02344    -3.4500    1.00726  -118.0363    0.97051   120.3793;
     70   1.02369    -3.5000    1.00689  -118.0291    0.97058   120.3399;
     71   1.02392    -3.5500    1.00651  -118.0227    0.97066   120.3005;
     72   1.02416    -3.6000    1.00612  -118.0171    0.97075   120.2608;
     73   1.02439    -3.6500    1.00574  -118.0123    0.97084   120.2211;
     74   1.02461    -3.7000    1.00536  -118.0082    0.97093   120.1813;
     75   1.02483    -3.7500    1.00497  -118.0050    0.97103   120.1415;
     76   1.02505    -3.8000    1.00459  -118.0026    0.97113   120.1015;
     77   1.02526    -3.8500    1.00420  -118.0009    0.97124   120.0616;
     78   1.02547    -3.9000    1.00382  -118.0001    0.97135   120.0216;
     79   1.02567    -3.9500    1.00343  -118.0001    0.97147   119.9816;
     80   1.02587    -4.0000    1.00304  -118.0009    0.97160   119.9416;
     81   1.02607    -4.0500    1.00265  -118.0024    0.97172   119.9016;
     82   1.02626    -4.1000    1.00227  -118.0048    0.97186   119.8617;
     83   1.02644    -4.1500    1.00188  -118.0080    0.97199   119.8218;
     84   1.02663    -4.2000    1.00149  -118.0119    0.97214   119.7820;
     85   1.02680    -4.2500    1.00110  -118.0167    0.97228   119.7423;
     86   1.02698    -4.3000    1.00071  -118.0222    0.97243   119.7027;
     87   1.02715    -4.3500    1.00032  -118.0286    0.97259   119.6632;
     88   1.02731    -4.4000    0.99993  -118.0357    0.97275   119.6238;
     89   1.02747    -4.4500    0.99954  -118.0436    0.97292   119.5846;
     90   1.02762     0.0000    0.99915  -118.0523    0.97309   119.5456;
     91   1.02777    -0.0500    0.99876  -118.0618    0.97326   119.5067;
     92   1.02792    -0.1000    0.99837  -118.0720    0.97344   119.4681;
     93   1.02806    -0.1500    0.99798  -118.0831    0.97362   119.4296;
     94   1.02819    -0.2000    0.99759  -118.0948    0.97381   119.3914;
     95   1.02832    -0.2500    0.99720  -118.1074    0.97400   119.3534;
     96   1.02845    -0.3000    0.99681  -118.1207    0.97420   119.3157;
     97   1.02857    -0.3500    0.99643  -118.1348    0.97440   119.2783;
     98   1.02869    -0.4000    0.99604  -118.1496    0.97461   119.2411;
     99   1.02880    -0.4500    0.99565  -118.1651    0.97482   119.2042;
    100   1.02891    -0.5000    0.99527  -118.1814    0.97503   119.1677;
    101   1.02901    -0.5500    0.99488  -118.1984    0.97525   119.1315;
    102   1.02911    -0.6000    0.99450  -118.2161    0.97547   119.0956;
    103   1.02920    -0.6500    0.99412  -118.2346    0.97570   119.0602;
    104   1.02928    -0.7000    0.99373  -118.2537    0.97593   119.0250;
    105   1.02937    -0.7500    0.99335  -118.2736    0.97616   118.9903;
    106   1.02944    -0.8000    0.99297  -118.2941    0.97640   118.9560;
    107   1.02952    -0.8500    0.99260  -118.3153    0.97665   118.9221;
    108   1.02958    -0.9000    0.99222  -118.3372    0.97689   118.8886;
    109   1.02965    -0.9500    0.99184  -118.3598    0.97714   118.8556;
    110   1.02970    -1.0000    0.99147  -118.3830    0.97740   118.8230;
    111   1.02976    -1.0500    0.99109  -118.4069    0.97766   118.7909;
    112   1.02980    -1.1000    0.99072  -118.4314    0.97792   118.7593;
    113   1.02984    -1.1500    0.99035  -118.4565    0.97819   118.7282;
    114   1.02988    -1.2000    0.98998  -118.4822    0.97845   118.6975;
    115   1.02991    -1.2500    0.98962  -118.5086    0.97873   118.6674;
    116   1.02994    -1.3000    0.98925  -118.5355    0.97900   118.6379;
    117   1.02996    -1.3500    0.98889  -118.5631    0.97928   118.6089;
    118   1.02998    -1.4000    0.98853  -118.5912    0.97957   118.5804;
    119   1.02999    -1.4500    0.98817  -118.6199    0.97986   118.5525;
    120   1.03000    -1.5000    0.98781  -118.6491    0.98015   118.5252;
    121   1.03000    -1.5500    0.98746  -118.6788    0.98044   118.4985;
    122   1.03000    -1.6000    0.98710  -118.7091    0.98074   118.4724;
    123   1.02999    -1.6500    0.98675  -118.7399    0.98104   118.4469;
    124   1.02997    -1.7000    0.98640  -118.7713    0.98134   118.4220;
    125   1.02996    -1.7500    0.98606  -118.8031    0.98165   118.3977;
    126   1.02993    -1.8000    0.98571  -118.8353    0.98196   118.3741;
    127   1.02990    -1.8500    0.98537  -118.8681    0.98227   118.3511;
    128   1.02987    -1.9000    0.98503  -118.9013    0.98259   118.3288;
    129   1.02983    -1.9500    0.98469  -118.9349    0.98291   118.3072;
    130   1.02979    -2.0000    0.98436  -118.9690    0.98323   118.2862;
    131   1.02974    -2.0500    0.98403  -119.0035    0.98355   118.2659;
    132   1.02968    -2.1000    0.98370  -119.0384    0.98388   118.2464;
    133   1.02963    -2.1500    0.98337  -119.0736    0.98421   118.2275;
    134   1.02956    -2.2000    0.98305  -119.1093    0.98455   118.2093;
    135   1.02949    -2.2500    0.98273  -119.1452    0.98488   118.1919;
    136   1.02942    -2.3000    0.98241  -119.1816    0.98522   118.1751;
    137   1.02934    -2.3500    0.98210  -119.2182    0.98556   118.1591;
    138   1.02926    -2.4000    0.98179  -119.2552    0.98590   118.1439;
    139   1.02917    -2.4500    0.98148  -119.2925    0.98625   118.1293;
    140   1.02907    -2.5000    0.98117  -119.3300    0.98660   118.1156;
    141   1.02897    -2.5500    0.98087  -119.3678    0.98695   118.1025;
    142   1.02887    -2.6000    0.98057  -119.4059    0.98730   118.0903;
    143   1.02876    -2.6500    0.98028  -119.4442    0.98765   118.0788;
    144   1.02865    -2.7000    0.97998  -119.4828    0.98801   118.0680;
    145   1.02853    -2.7500    0.97970  -119.5215    0.98837   118.0581;
    146   1.02841    -2.8000    0.97941  -119.5604    0.98873   118.0489;
    147   1.02828    -2.8500    0.97913  -119.5995    0.98909   118.0405;
    148   1.02815    -2.9000    0.97885  -119.6388    0.98945   118.0329;
    149   1.02801    -2.9500    0.97858  -119.6782    0.98982   118.0261;
    150   1.02787    -3.0000    0.97830  -119.7178    0.99019   118.0200;
];

end
